data_Cr_+_Tereph
_audit_creation_method         'generated by CrystalMaker X for macOS'
_cell_length_a                  88.868990
_cell_length_b                  88.868990
_cell_length_c                  88.868990
_cell_angle_alpha               90.000000
_cell_angle_beta                90.000000
_cell_angle_gamma               90.000000

_symmetry_space_group_name_H-M     'F d -3 m'

loop_
_symmetry_equiv_pos_as_xyz
'+x,+y,+z'
'+z,+x,+y'
'+y,+z,+x'
'-x,1/4+y,1/4+z'
'-z,1/4+x,1/4+y'
'-y,1/4+z,1/4+x'
'1/4+x,-y,1/4+z'
'1/4+z,-x,1/4+y'
'1/4+y,-z,1/4+x'
'1/4-x,3/4-y,1/2+z'
'1/4-z,3/4-x,1/2+y'
'1/4-y,3/4-z,1/2+x'
'+y,+x,+z'
'+x,+z,+y'
'+z,+y,+x'
'1/4+y,-x,1/4+z'
'1/4+x,-z,1/4+y'
'1/4+z,-y,1/4+x'
'-y,1/4+x,1/4+z'
'-x,1/4+z,1/4+y'
'-z,1/4+y,1/4+x'
'3/4-y,1/4-x,1/2+z'
'3/4-x,1/4-z,1/2+y'
'3/4-z,1/4-y,1/2+x'
'-x,-y,-z'
'-z,-x,-y'
'-y,-z,-x'
'+x,3/4-y,3/4-z'
'+z,3/4-x,3/4-y'
'+y,3/4-z,3/4-x'
'3/4-x,+y,3/4-z'
'3/4-z,+x,3/4-y'
'3/4-y,+z,3/4-x'
'3/4+x,1/4+y,1/2-z'
'3/4+z,1/4+x,1/2-y'
'3/4+y,1/4+z,1/2-x'
'-y,-x,-z'
'-x,-z,-y'
'-z,-y,-x'
'3/4-y,+x,3/4-z'
'3/4-x,+z,3/4-y'
'3/4-z,+y,3/4-x'
'+y,3/4-x,3/4-z'
'+x,3/4-z,3/4-y'
'+z,3/4-y,3/4-x'
'1/4+y,3/4+x,1/2-z'
'1/4+x,3/4+z,1/2-y'
'1/4+z,3/4+y,1/2-x'
'+x,1/2+y,1/2+z'
'1/2+x,1/2+y,+z'
'1/2+x,+y,1/2+z'
'+z,1/2+x,1/2+y'
'1/2+z,1/2+x,+y'
'1/2+z,+x,1/2+y'
'+y,1/2+z,1/2+x'
'1/2+y,1/2+z,+x'
'1/2+y,+z,1/2+x'
'-x,3/4+y,3/4+z'
'1/2-x,3/4+y,1/4+z'
'1/2-x,1/4+y,3/4+z'
'-z,3/4+x,3/4+y'
'1/2-z,3/4+x,1/4+y'
'1/2-z,1/4+x,3/4+y'
'-y,3/4+z,3/4+x'
'1/2-y,3/4+z,1/4+x'
'1/2-y,1/4+z,3/4+x'
'1/4+x,1/2-y,3/4+z'
'3/4+x,1/2-y,1/4+z'
'3/4+x,-y,3/4+z'
'1/4+z,1/2-x,3/4+y'
'3/4+z,1/2-x,1/4+y'
'3/4+z,-x,3/4+y'
'1/4+y,1/2-z,3/4+x'
'3/4+y,1/2-z,1/4+x'
'3/4+y,-z,3/4+x'
'1/4-x,1/4-y,+z'
'3/4-x,1/4-y,1/2+z'
'3/4-x,3/4-y,+z'
'1/4-z,1/4-x,+y'
'3/4-z,1/4-x,1/2+y'
'3/4-z,3/4-x,+y'
'1/4-y,1/4-z,+x'
'3/4-y,1/4-z,1/2+x'
'3/4-y,3/4-z,+x'
'+y,1/2+x,1/2+z'
'1/2+y,1/2+x,+z'
'1/2+y,+x,1/2+z'
'+x,1/2+z,1/2+y'
'1/2+x,1/2+z,+y'
'1/2+x,+z,1/2+y'
'+z,1/2+y,1/2+x'
'1/2+z,1/2+y,+x'
'1/2+z,+y,1/2+x'
'1/4+y,1/2-x,3/4+z'
'3/4+y,1/2-x,1/4+z'
'3/4+y,-x,3/4+z'
'1/4+x,1/2-z,3/4+y'
'3/4+x,1/2-z,1/4+y'
'3/4+x,-z,3/4+y'
'1/4+z,1/2-y,3/4+x'
'3/4+z,1/2-y,1/4+x'
'3/4+z,-y,3/4+x'
'-y,3/4+x,3/4+z'
'1/2-y,3/4+x,1/4+z'
'1/2-y,1/4+x,3/4+z'
'-x,3/4+z,3/4+y'
'1/2-x,3/4+z,1/4+y'
'1/2-x,1/4+z,3/4+y'
'-z,3/4+y,3/4+x'
'1/2-z,3/4+y,1/4+x'
'1/2-z,1/4+y,3/4+x'
'3/4-y,3/4-x,+z'
'1/4-y,3/4-x,1/2+z'
'1/4-y,1/4-x,+z'
'3/4-x,3/4-z,+y'
'1/4-x,3/4-z,1/2+y'
'1/4-x,1/4-z,+y'
'3/4-z,3/4-y,+x'
'1/4-z,3/4-y,1/2+x'
'1/4-z,1/4-y,+x'
'-x,1/2-y,1/2-z'
'1/2-x,1/2-y,-z'
'1/2-x,-y,1/2-z'
'-z,1/2-x,1/2-y'
'1/2-z,1/2-x,-y'
'1/2-z,-x,1/2-y'
'-y,1/2-z,1/2-x'
'1/2-y,1/2-z,-x'
'1/2-y,-z,1/2-x'
'+x,1/4-y,1/4-z'
'1/2+x,1/4-y,3/4-z'
'1/2+x,3/4-y,1/4-z'
'+z,1/4-x,1/4-y'
'1/2+z,1/4-x,3/4-y'
'1/2+z,3/4-x,1/4-y'
'+y,1/4-z,1/4-x'
'1/2+y,1/4-z,3/4-x'
'1/2+y,3/4-z,1/4-x'
'3/4-x,1/2+y,1/4-z'
'1/4-x,1/2+y,3/4-z'
'1/4-x,+y,1/4-z'
'3/4-z,1/2+x,1/4-y'
'1/4-z,1/2+x,3/4-y'
'1/4-z,+x,1/4-y'
'3/4-y,1/2+z,1/4-x'
'1/4-y,1/2+z,3/4-x'
'1/4-y,+z,1/4-x'
'3/4+x,3/4+y,-z'
'1/4+x,3/4+y,1/2-z'
'1/4+x,1/4+y,-z'
'3/4+z,3/4+x,-y'
'1/4+z,3/4+x,1/2-y'
'1/4+z,1/4+x,-y'
'3/4+y,3/4+z,-x'
'1/4+y,3/4+z,1/2-x'
'1/4+y,1/4+z,-x'
'-y,1/2-x,1/2-z'
'1/2-y,1/2-x,-z'
'1/2-y,-x,1/2-z'
'-x,1/2-z,1/2-y'
'1/2-x,1/2-z,-y'
'1/2-x,-z,1/2-y'
'-z,1/2-y,1/2-x'
'1/2-z,1/2-y,-x'
'1/2-z,-y,1/2-x'
'3/4-y,1/2+x,1/4-z'
'1/4-y,1/2+x,3/4-z'
'1/4-y,+x,1/4-z'
'3/4-x,1/2+z,1/4-y'
'1/4-x,1/2+z,3/4-y'
'1/4-x,+z,1/4-y'
'3/4-z,1/2+y,1/4-x'
'1/4-z,1/2+y,3/4-x'
'1/4-z,+y,1/4-x'
'+y,1/4-x,1/4-z'
'1/2+y,1/4-x,3/4-z'
'1/2+y,3/4-x,1/4-z'
'+x,1/4-z,1/4-y'
'1/2+x,1/4-z,3/4-y'
'1/2+x,3/4-z,1/4-y'
'+z,1/4-y,1/4-x'
'1/2+z,1/4-y,3/4-x'
'1/2+z,3/4-y,1/4-x'
'1/4+y,1/4+x,-z'
'3/4+y,1/4+x,1/2-z'
'3/4+y,3/4+x,-z'
'1/4+x,1/4+z,-y'
'3/4+x,1/4+z,1/2-y'
'3/4+x,3/4+z,-y'
'1/4+z,1/4+y,-x'
'3/4+z,1/4+y,1/2-x'
'3/4+z,3/4+y,-x'

loop_
_atom_site_label
_atom_site_type_symbol
_atom_site_occupancy
_atom_site_fract_x
_atom_site_fract_y
_atom_site_fract_z
 C1  C 1.0  -0.1205  -0.10929  -0.06934
 C2  C 1.0  0.14658  0.10341  0.06614
 C3  C 1.0  0.13577  0.11423  0.0668
 C4  C 1.0  0.33163  0.312  0.75507
 C5  C 1.0  0.18414  0.18414  0.26664
 C6  C 1.0  0.17855  0.17855  0.25298
 C7  C 1.0  0.33506  0.3153  0.77052
 C8  C 1.0  0.17083  0.17083  0.20626
 C9  C 1.0  0.17268  0.17268  0.22215
 C10  C 1.0  0.23623  0.24748  0.79691
 C11  C 1.0  0.226  0.27033  0.80736
 C12  C 1.0  0.23755  0.2594  0.80736
 C13  C 1.0  0.24506  0.25632  0.82141
 C14  C 1.0  0.07184  -0.05231  0.45923
 C15  C 1.0  0.08022  -0.0613  0.48456
 C16  C 1.0  0.08111  -0.05018  0.47259
 C17  C 1.0  0.0929  -0.03933  0.47197
 C18  C 1.0  0.09204  -0.05816  0.39347
 C19  C 1.0  0.09671  -0.03092  0.38844
 C20  C 1.0  0.09891  -0.04596  0.38504
 C21  C 1.0  0.09472  -0.0731  0.38883
 C22  C 1.0  0.1103  -0.09071  0.37309
 C23  C 1.0  0.10769  -0.07589  0.3795
 C24  C 1.0  0.11224  -0.04836  0.37746
 C25  C 1.0  0.11582  -0.0635  0.37311
 C26  C 1.0  0.6947  -0.0734  -0.0734
 C27  C 1.0  0.68725  -0.08343  -0.08343
 C28  C 1.0  0.65361  -0.10826  -0.10826
 C29  C 1.0  0.66184  -0.09804  -0.09804
 C30  C 1.0  0.67951  -0.07678  -0.09529
 C31  C 1.0  0.66801  -0.08485  -0.10355
 C32  C 1.0  0.15706  -0.01355  0.44571
 C33  C 1.0  0.1813  -0.02464  0.44016
 C34  C 1.0  0.16789  -0.01807  0.43518
 C35  C 1.0  0.14422  -0.00617  0.44076
 C36  C 1.0  0.12747  -0.00095  0.41918
 C37  C 1.0  0.14175  -0.00489  0.42522
 C38  C 1.0  0.16484  -0.01846  0.41968
 C39  C 1.0  0.15158  -0.01171  0.41458
 Cr1  Cr 1.0  0.09473  -0.07201  0.51291
 Cr2  Cr 1.0  -0.07092  -0.09773  0.82092
 Cr3  Cr 1.0  0.14205  0.35795  0.5
 Cr4  Cr 1.0  0.125  0.35421  0.625
 Cr5  Cr 1.0  0.13618  0.36129  -0.11129
 Cr6  Cr 1.0  0.21632  0.21632  0.29932
 Cr7  Cr 1.0  0.3228  0.29246  0.70846
 O1  O 1.0  0.07916  0.07916  0.17085
 O2  O 1.0  0.20004  0.20004  0.29603
 O3  O 1.0  0.125  -0.12367  0.125
 O4  O 1.0  0.15812  0.34189  0.5
 O5  O 1.0  0.85869  -0.09018  -0.06964
 O6  O 1.0  0.3239  0.30587  0.72646
 O7  O 1.0  0.33886  0.32263  0.8007
 O8  O 1.0  0.22122  0.27416  0.82068
 O9  O 1.0  0.21763  0.27195  0.79523
 O10  O 1.0  0.07701  -0.07439  0.48044
 O11  O 1.0  0.08776  -0.05997  0.49692
 O12  O 1.0  0.08758  -0.02721  0.39876
 O13  O 1.0  0.10774  -0.02253  0.38451
 O14  O 1.0  0.10125  -0.10189  0.37552
 O15  O 1.0  0.12292  -0.09307  0.36631
 O16  O 1.0  0.69362  -0.05911  -0.07805
 O17  O 1.0  0.64839  -0.10378  -0.12056
 O18  O 1.0  0.18523  -0.02376  0.45379
 O19  O 1.0  0.18927  -0.03088  0.43055
 O20  O 1.0  0.11692  0.00664  0.42722
 O21  O 1.0  0.12647  -0.00338  0.40475
 O22  O 1.0  -0.06102  -0.11185  0.81102
 O23  O 1.0  0.34415  0.28873  0.71087
 O24  O 1.0  0.26893  0.20642  0.76893
 O25  O 1.0  0.15369  0.35171  -0.10171
 O26  O 1.0  0.125  0.33237  0.625
 O27  O 1.0  0.12523  0.37477  0.5
 O28  O 1.0  0.0942  -0.0525  0.52526

